/*---------------------------------------------------------------------------*\
| =========                 |                                                 |
| \\      /  F ield         | OpenFOAM: The Open Source CFD Toolbox           |
|  \\    /   O peration     | Version:  v1706                                 |
|   \\  /    A nd           | Web:      http://www.openfoam.org               |
|    \\/     M anipulation  |                                                 |
\*---------------------------------------------------------------------------*/
FoamFile
{
    version     2.0;
    format      ascii;
    class       dictionary;
    location    "system";
    object      boundariesDict;
}
// * * * * * * * * * * * * * * * * * * * * * * * * * * * * * * * * * * * * * //

dsmcPatchBoundaries
(

    boundary
    {
         patchBoundaryProperties
         {
             patchName   wall;
         }
 
         boundaryModel   dsmcDiffuseWallPatch;
 
         dsmcDiffuseWallPatchProperties
         {
			      temperature 		300;
			      velocity 			(0 0 0);
         }
     }

     boundary
    {
        patchBoundaryProperties
        {
            patchName   inlet;
        }
        boundaryModel   dsmcDeletionPatch;
        dsmcDeletionPatchProperties
        {
            allSpecies  yes;
        }
    }


    boundary
    {
        patchBoundaryProperties
        {
            patchName   outlet;
        }

        boundaryModel   dsmcDeletionPatch;

        dsmcDeletionPatchProperties
        {
	          allSpecies		yes;
        }
    }

);

dsmcCyclicBoundaries
(

);

dsmcGeneralBoundaries
(
   
    boundary
    {
        generalBoundaryProperties
        {
            patchName                           inlet;
        }

        boundaryModel   dsmcFreeStreamInflowPatch;

        dsmcFreeStreamInflowPatchProperties
        {
			      typeIds						(EqGas);
			      translationalTemperature           823;
		        velocity                    (2370 332 0);
		        numberDensities
		        {
		            EqGas          3.871e22;
		        }
	      }
    }

);


// ************************************************************************* //
